ucte/ucte-converter/src/test/resources/expectedExport.uct
##C 2007.05.01
##N
##ZBE
B_SU1_11 Belgium Nod1 0 0        50.0000 0.00000 999999. 999999.
B_SU1_21 Belgium Nod2 0 2 225.00 999999. 999999. 100.000 0.00000                                                               F
##ZFR
F_SU1_11 France Node1 0 0        50.0000 0.00000 999999. 999999.
F_SU1_12 France Node3 0 0        999999. 999999. 999999. 999999.
F_SU1_21 France Node2 0 0        999999. 999999. 999999. 999999.
F_SU1_31 France Node4 0 0 225.00 25.0000 10.0000 5.00000 2.00000                                                               F
F_SU2_11 France ONode 0 2 400.00 999999. 999999. 50.0000 0.00000                                                               F
##ZHR
HCCCCC1  namename11   0 0        123.000 18.4000 999999. 999999.
HDDDDD2  namename11   0 0        999999. 999999. 999999. 999999.
##ZPL
ZABCD221              0 0        999999. 999999. 999999. 999999.
ZEFGH221              0 0        999999. 999999. 999999. 999999.
ZIJK1412              0 0        999999. 999999. 999999. 999999.
ZLMNO221              0 0        999999. 999999. 999999. 999999.
##ZME
0AAAAA2  NAME12121212 0 0        999999. 999999. 999999. 999999.
0BBBBB5  NAME12121212 0 2 115.00 999999. 999999. -33.200 10.0000 0.00000 -300.00 10.0000 -40.000                               F
##ZXX
XB__F_11 FR-BE Xnode1 1 0        0.00000 0.00000
XB__F_21 FR-BE Xnode2 1 0        0.00000 0.00000
XG__F_21 France Xnode 1 0        50.0000 0.00000
##L
F_SU1_12 F_SU1_11 1 2 0.0000 0.0000 0.000000   5000 Test Coupler
F_SU1_12 F_SU2_11 1 0 0.5500 1.6800 13.25000   5000 Test Line
F_SU1_12 F_SU2_11 2 0 0.6666 1.8888 13.25000   5000 Test Line 2
XB__F_11 B_SU1_11 1 0 0.5500 1.6800 13.25000   5000 Test TL 1/2
XB__F_11 F_SU1_11 1 0 0.5500 1.6800 13.25000   5000 Test TL 1/1
XB__F_21 B_SU1_21 1 0 0.5500 1.6800 13.25000   5000 Test TL 2/2
XB__F_21 F_SU1_21 1 0 0.5500 1.6800 13.25000   5000 Test TL 2/1
XG__F_21 F_SU1_21 1 1 0.5500 1.6800 13.25000   5000 Test DL
##T
0BBBBB5  0AAAAA2  1 1 110.0 220.0 125.0 0.2500 10.686 0.000000 0.0000    656
B_SU1_11 B_SU1_21 1 1 400.0 225.0 5000. 0.5500 1.6800 13.25000 0.0000   5000 Test 2WT 2
F_SU1_11 F_SU1_21 1 1 400.0 225.0 5000. 0.5500 1.6800 13.25000 0.0000   5000 Test 2WT 1
HDDDDD2  HCCCCC1  1 1 231.0 400.0 400.0 0.1880 15.100 -9.76000 0.0000   1000
ZABCD221 ZEFGH221 1 1 220.0 220.0 330.0 0.0484 0.4840 0.000000 0.0000    866
ZIJK1412 ZLMNO221 1 1 400.0 231.0 400.0 1.1360 53.504 -27.2125 0.0000    693
##R
0BBBBB5  0AAAAA2  1 2.000  7  -3
HDDDDD2  HCCCCC1  1                    1.000 60.00 13   3       ASYM
ZABCD221 ZEFGH221 1                    1.573 90.00  8  -1       SYMM
ZIJK1412 ZLMNO221 1 1.250 11   1 220.0
